TLTK/Dynamic Thay Huy/Vi du minh hoa/Vd 11 - Voltage collapse/New England/ne_.txt

 Ordering network...
 Diagonals = 38   Off-diagonals = 58   Maximum size = 88

  ITER       DELTAP      BUS         DELTAQ      BUS        DELTA/V/      BUS       DELTAANG      BUS
   0         8.2200(       38   )    8.3069(       19   )
                                                             0.09353(        6   )   0.35948(       36   )
   1         0.8690(        8   )    1.1013(       19   )
                                                             0.02021(       24   )   0.04606(       36   )
   2         0.0279(       10   )    0.0266(        6   )
                                                             0.00059(        5   )   0.00132(       38   )
   3         0.0000(       10   )    0.0000(        6   )


 Reached tolerance in 3 iterations

 Largest mismatch:      0.00 MW      0.00 Mvar      0.01 MVA at bus 6 [6           345.00]
 System total absolute mismatch:                    0.04 MVA

 SWING BUS SUMMARY:
   BUS# X-- NAME --X BASKV      PGEN     PMAX    PMIN      QGEN     QMAX    QMIN
     39 39          22.000    1001.0   9999.9     0.0     -23.5   1500.0 -1000.0

 Generator conversion completed using ZSORCE

 31 loads converted during this step

 31 of 31 loads converted
 Ordering network...
 Diagonals = 39   Off-diagonals = 67   Maximum size = 92

 39 diagonal and 67 off-diagonal elements
 Out of file data--switch to terminal input mode

 Generator models use:
  CONS        1-   140
  STATES      1-    60

 Maximum Exc. Limiter models use:
  CONS      141-   240
  VARS        1-    10
  ICONS       1-    10

 Excitation System models use:
  CONS      241-   384
  STATES     61-   105
  VARS       11-    19

 Turbine Governor models use:
  CONS      385-   480
  STATES    106-   133
  VARS       20-    49
  ICONS      11-    12


 SUMMARY OF MODELS READ:

 GENS:  GENROU
          10

 MAXXL: MAXEX1
          10

 EXSYS: ESDC1A
           9

 GOVS:  TGOV1            GGOV1
           9                1

 NEXT AVAILABLE ADDRESSES ARE:
    CON  STATE    VAR   ICON
    481    134     50     13

 Only PSS/E supplied models in case. Compilation is not required
   1  0.93E-02      7 [7           345.00]    -0.8662E-06     0.3255E-06

     PTI INTERACTIVE POWER SYSTEM SIMULATOR--PSS(R)E     SAT, MAY 08 2021  10:24
 NEW ENGLAND TEST SYSTEM, 39 BUSES, 9 GENERATORS
 CREATED BY PABLO LEDESMA PABLOLE@ING.UC3M.ES

 INITIAL CONDITION LOAD FLOW USED 1 ITERATIONS

 ----------------------------- MACHINE INITIAL CONDITIONS -----------------------------
   BUS# X-- NAME --X BASKV ID  ETERM   EFD    POWER    VARS   P.F.  ANGLE   ID     IQ
     30 30          22.000 1  1.0475 1.1790  250.00  114.32 0.9094  14.72 0.1426 0.2203
     31 31          22.000 1  1.0400 2.7679  572.93  423.33 0.8043  43.83 0.6508 0.2135
     32 32          22.000 1  0.9831 1.9493  650.00   22.22 0.9994  68.42 0.5639 0.3460
     33 33          22.000 1  0.9972 2.1357  632.00  131.66 0.9790  63.89 0.5741 0.2991
     34 34          22.000 1  1.0123 4.0105  508.00  177.52 0.9440  67.71 0.5141 0.1353
     35 35          22.000 1  1.0493 2.2595  650.00  236.62 0.9397  58.34 0.5882 0.2978
     36 36          22.000 1  1.0635 2.0793  560.00  114.90 0.9796  66.00 0.4641 0.2711
     37 37          22.000 1  1.0278 1.8214  540.00  -10.38 0.9998  68.01 0.4289 0.3036
     38 38          22.000 1  1.0265 2.1030  830.00  101.28 0.9926  71.16 0.7083 0.4023
     39 39          22.000 1  1.0300 1.0437 1001.01  -23.46 0.9997  10.21 0.1498 0.9605
   1  0.13E-02     28 [28          345.00]     0.8059E-08    -0.1277E-06

 INITIAL CONDITIONS CHECK O.K.

 Channel output file is "ne_2.out"

 Channel output file is "ne_2.out"

    TIME X- VALUE --X X--------- IDENTIFIER ---------X X- VALUE --X X--------- IDENTIFIER ---------X
 -0.0100   0.0000     SPD     30[30          22.000]1    0.0000     SPD     31[31          22.000]1
     3     0.0000     SPD     32[32          22.000]1    0.0000     SPD     33[33          22.000]1
     5     0.0000     SPD     34[34          22.000]1    0.0000     SPD     35[35          22.000]1
     7     0.0000     SPD     36[36          22.000]1    0.0000     SPD     37[37          22.000]1
     9     0.0000     SPD     38[38          22.000]1    0.0000     SPD     39[39          22.000]1
    11     1.1790     EFD     30[30          22.000]1    2.7679     EFD     31[31          22.000]1
    13     1.9493     EFD     32[32          22.000]1    2.1357     EFD     33[33          22.000]1
    15     4.0105     EFD     34[34          22.000]1    2.2595     EFD     35[35          22.000]1
    17     2.0793     EFD     36[36          22.000]1    1.8214     EFD     37[37          22.000]1
    19     2.1030     EFD     38[38          22.000]1    1.0437     EFD     39[39          22.000]1
    21     0.0000     VOEL    30[30          22.000]1    0.0000     VOEL    31[31          22.000]1
    23     0.0000     VOEL    32[32          22.000]1    0.0000     VOEL    33[33          22.000]1
    25     0.0000     VOEL    34[34          22.000]1    0.0000     VOEL    35[35          22.000]1
    27     0.0000     VOEL    36[36          22.000]1    0.0000     VOEL    37[37          22.000]1
    29     0.0000     VOEL    38[38          22.000]1    0.0000     VOEL    39[39          22.000]1
    31     2.5000     POWR    30[30          22.000]1    5.7293     POWR    31[31          22.000]1
    33     6.5000     POWR    32[32          22.000]1    6.3200     POWR    33[33          22.000]1
    35     5.0800     POWR    34[34          22.000]1    6.5000     POWR    35[35          22.000]1
    37     5.6000     POWR    36[36          22.000]1    5.4000     POWR    37[37          22.000]1
    39     8.3000     POWR    38[38          22.000]1    10.010     POWR    39[39          22.000]1
    41     1.0420     VOLT      1 [1           345.00]   1.0430     VOLT      2 [2           345.00]
    43     1.0272     VOLT      3 [3           345.00]   1.0302     VOLT      4 [4           345.00]
    45     1.0492     VOLT      5 [5           345.00]   1.0507     VOLT      6 [6           345.00]
    47     1.0382     VOLT      7 [7           345.00]   1.0360     VOLT      8 [8           345.00]
    49     1.0409     VOLT      9 [9           345.00]   1.0381     VOLT     10 [10          345.00]
    51     1.0409     VOLT     11 [11          345.00]   1.0245     VOLT     12 [12          345.00]
    53     1.0329     VOLT     13 [13          345.00]   1.0239     VOLT     14 [14          345.00]
    55    0.99026     VOLT     15 [15          345.00]  0.99051     VOLT     16 [16          345.00]
    57     1.0033     VOLT     17 [17          345.00]   1.0111     VOLT     18 [18          345.00]
    59     1.0036     VOLT     19 [19          345.00]  0.93792     VOLT     20 [20          345.00]
    61    0.99363     VOLT     21 [21          345.00]   1.0171     VOLT     22 [22          345.00]
    63     1.0153     VOLT     23 [23          345.00]  0.99724     VOLT     24 [24          345.00]
    65     1.0378     VOLT     25 [25          345.00]   1.0281     VOLT     26 [26          345.00]
    67     1.0108     VOLT     27 [27          345.00]   1.0323     VOLT     28 [28          345.00]
    69     1.0298     VOLT     29 [29          345.00]   1.0418     VOLT     30 [30          22.000]
    71     1.0160     VOLT     31 [31          22.000]  0.97807     VOLT     32 [32          22.000]
    73    0.96310     VOLT     33 [33          22.000]  0.94959     VOLT     34 [34          22.000]
    75     1.0200     VOLT     35 [35          22.000]   1.0564     VOLT     36 [36          22.000]
    77     1.0084     VOLT     37 [37          22.000]   1.0047     VOLT     38 [38          22.000]
    79     1.0238     VOLT     39 [39          22.000]   5833.6     PMECH FOR ALL BUSES
    81     5850.8     PELEC FOR ALL BUSES               -17.201     PACCL FOR ALL BUSES
    83     5805.6     PLOAD FOR ALL BUSES                45.192     PE-PL FOR ALL BUSES

  1.0000 -1.56672E-06 -1.50883E-06 -1.36223E-06 -1.16529E-06 -9.42785E-07 -1.15111E-06
     7   -1.18721E-06 -1.46298E-06 -1.14752E-06 -2.65945E-06   1.1790       2.7679
    13     1.9494       2.1357       4.0105       2.2595       2.0794       1.8214
    19     2.1031       1.0437       0.0000       0.0000       0.0000       0.0000
    25     0.0000       0.0000       0.0000       0.0000       0.0000       0.0000
    31     2.5004       5.7296       6.5004       6.3203       5.0802       6.5003
    37     5.6003       5.4002       8.3003       10.007       1.0420       1.0430
    43     1.0272       1.0302       1.0492       1.0507       1.0382       1.0360
    49     1.0409       1.0381       1.0409       1.0245       1.0329       1.0239
    55    0.99026      0.99051       1.0033       1.0111       1.0036      0.93792
    61    0.99363       1.0171       1.0153      0.99724       1.0378       1.0281
    67     1.0108       1.0323       1.0298       1.0418       1.0160      0.97807
    73    0.96310      0.94959       1.0200       1.0564       1.0084       1.0047
    79     1.0238       5833.6       5850.8      -17.201       5805.6       45.192

 Channel output file is "ne_2.out"

    TIME X- VALUE --X X--------- IDENTIFIER ---------X X- VALUE --X X--------- IDENTIFIER ---------X
  1.0000 -1.56672E-06 SPD     30[30          22.000]1  -1.50883E-06 SPD     31[31          22.000]1
     3   -1.36223E-06 SPD     32[32          22.000]1  -1.16529E-06 SPD     33[33          22.000]1
     5   -9.42785E-07 SPD     34[34          22.000]1  -1.15111E-06 SPD     35[35          22.000]1
     7   -1.18721E-06 SPD     36[36          22.000]1  -1.46298E-06 SPD     37[37          22.000]1
     9   -1.14752E-06 SPD     38[38          22.000]1  -2.65945E-06 SPD     39[39          22.000]1
    11     1.1790     EFD     30[30          22.000]1    2.7679     EFD     31[31          22.000]1
    13     1.9494     EFD     32[32          22.000]1    2.1357     EFD     33[33          22.000]1
    15     4.0105     EFD     34[34          22.000]1    2.2595     EFD     35[35          22.000]1
    17     2.0794     EFD     36[36          22.000]1    1.8214     EFD     37[37          22.000]1
    19     2.1031     EFD     38[38          22.000]1    1.0437     EFD     39[39          22.000]1
    21     0.0000     VOEL    30[30          22.000]1    0.0000     VOEL    31[31          22.000]1
    23     0.0000     VOEL    32[32          22.000]1    0.0000     VOEL    33[33          22.000]1
    25     0.0000     VOEL    34[34          22.000]1    0.0000     VOEL    35[35          22.000]1
    27     0.0000     VOEL    36[36          22.000]1    0.0000     VOEL    37[37          22.000]1
    29     0.0000     VOEL    38[38          22.000]1    0.0000     VOEL    39[39          22.000]1
    31     2.5004     POWR    30[30          22.000]1    5.7296     POWR    31[31          22.000]1
    33     6.5003     POWR    32[32          22.000]1    6.3203     POWR    33[33          22.000]1
    35     5.0802     POWR    34[34          22.000]1    6.5003     POWR    35[35          22.000]1
    37     5.6003     POWR    36[36          22.000]1    5.4002     POWR    37[37          22.000]1
    39     8.3003     POWR    38[38          22.000]1    10.007     POWR    39[39          22.000]1
    41     1.0420     VOLT      1 [1           345.00]   1.0430     VOLT      2 [2           345.00]
    43     1.0272     VOLT      3 [3           345.00]   1.0302     VOLT      4 [4           345.00]
    45     1.0492     VOLT      5 [5           345.00]   1.0507     VOLT      6 [6           345.00]
    47     1.0382     VOLT      7 [7           345.00]   1.0360     VOLT      8 [8           345.00]
    49     1.0409     VOLT      9 [9           345.00]   1.0381     VOLT     10 [10          345.00]
    51     1.0409     VOLT     11 [11          345.00]   1.0245     VOLT     12 [12          345.00]
    53     1.0329     VOLT     13 [13          345.00]   1.0239     VOLT     14 [14          345.00]
    55    0.99026     VOLT     15 [15          345.00]  0.99051     VOLT     16 [16          345.00]
    57     1.0033     VOLT     17 [17          345.00]   1.0111     VOLT     18 [18          345.00]
    59     1.0036     VOLT     19 [19          345.00]  0.93792     VOLT     20 [20          345.00]
    61    0.99363     VOLT     21 [21          345.00]   1.0171     VOLT     22 [22          345.00]
    63     1.0153     VOLT     23 [23          345.00]  0.99724     VOLT     24 [24          345.00]
    65     1.0378     VOLT     25 [25          345.00]   1.0281     VOLT     26 [26          345.00]
    67     1.0108     VOLT     27 [27          345.00]   1.0323     VOLT     28 [28          345.00]
    69     1.0298     VOLT     29 [29          345.00]   1.0418     VOLT     30 [30          22.000]
    71     1.0160     VOLT     31 [31          22.000]  0.97807     VOLT     32 [32          22.000]
    73    0.96310     VOLT     33 [33          22.000]  0.94959     VOLT     34 [34          22.000]
    75     1.0200     VOLT     35 [35          22.000]   1.0564     VOLT     36 [36          22.000]
    77     1.0084     VOLT     37 [37          22.000]   1.0047     VOLT     38 [38          22.000]
    79     1.0238     VOLT     39 [39          22.000]   5833.6     PMECH FOR ALL BUSES
    81     5850.8     PELEC FOR ALL BUSES               -17.201     PACCL FOR ALL BUSES
    83     5805.6     PLOAD FOR ALL BUSES                45.192     PE-PL FOR ALL BUSES

  2.0000 -8.13225E-06 -8.02268E-06 -7.99939E-06 -7.93052E-06 -7.76196E-06 -7.88956E-06
     7   -8.03627E-06 -8.02066E-06 -8.24269E-06 -8.89771E-06   1.1791       2.7680
    13     1.9496       2.1359       4.0108       2.2596       2.0798       1.8216
    19     2.1035       1.0437       0.0000       0.0000       0.0000       0.0000
    25     0.0000       0.0000       0.0000       0.0000       0.0000       0.0000
    31     2.5010       5.7301       6.5009       6.3208       5.0807       6.5009
    37     5.6008       5.4007       8.3009       10.001       1.0420       1.0430
    43     1.0272       1.0302       1.0492       1.0507       1.0382       1.0360
    49     1.0409       1.0381       1.0409       1.0245       1.0329       1.0239
    55    0.99026      0.99051       1.0033       1.0111       1.0036      0.93792
    61    0.99363       1.0171       1.0153      0.99724       1.0378       1.0281
    67     1.0108       1.0323       1.0298       1.0418       1.0160      0.97807
    73    0.96310      0.94959       1.0200       1.0564       1.0084       1.0047
    79     1.0238       5833.6       5850.8      -17.201       5805.6       45.192

 Channel output file is "ne_2.out"

    TIME X- VALUE --X X--------- IDENTIFIER ---------X X- VALUE --X X--------- IDENTIFIER ---------X
  2.0000 -8.13225E-06 SPD     30[30          22.000]1  -8.02268E-06 SPD     31[31          22.000]1
     3   -7.99939E-06 SPD     32[32          22.000]1  -7.93052E-06 SPD     33[33          22.000]1
     5   -7.76196E-06 SPD     34[34          22.000]1  -7.88956E-06 SPD     35[35          22.000]1
     7   -8.03627E-06 SPD     36[36          22.000]1  -8.02066E-06 SPD     37[37          22.000]1
     9   -8.24269E-06 SPD     38[38          22.000]1  -8.89771E-06 SPD     39[39          22.000]1
    11     1.1791     EFD     30[30          22.000]1    2.7680     EFD     31[31          22.000]1
    13     1.9496     EFD     32[32          22.000]1    2.1359     EFD     33[33          22.000]1
    15     4.0108     EFD     34[34          22.000]1    2.2596     EFD     35[35          22.000]1
    17     2.0798     EFD     36[36          22.000]1    1.8216     EFD     37[37          22.000]1
    19     2.1035     EFD     38[38          22.000]1    1.0437     EFD     39[39          22.000]1
    21     0.0000     VOEL    30[30          22.000]1    0.0000     VOEL    31[31          22.000]1
    23     0.0000     VOEL    32[32          22.000]1    0.0000     VOEL    33[33          22.000]1
    25     0.0000     VOEL    34[34          22.000]1    0.0000     VOEL    35[35          22.000]1
    27     0.0000     VOEL    36[36          22.000]1    0.0000     VOEL    37[37          22.000]1
    29     0.0000     VOEL    38[38          22.000]1    0.0000     VOEL    39[39          22.000]1
    31     2.5010     POWR    30[30          22.000]1    5.7301     POWR    31[31          22.000]1
    33     6.5009     POWR    32[32          22.000]1    6.3208     POWR    33[33          22.000]1
    35     5.0807     POWR    34[34          22.000]1    6.5008     POWR    35[35          22.000]1
    37     5.6008     POWR    36[36          22.000]1    5.4007     POWR    37[37          22.000]1
    39     8.3008     POWR    38[38          22.000]1    10.001     POWR    39[39          22.000]1
    41     1.0420     VOLT      1 [1           345.00]   1.0430     VOLT      2 [2           345.00]
    43     1.0272     VOLT      3 [3           345.00]   1.0302     VOLT      4 [4           345.00]
    45     1.0492     VOLT      5 [5           345.00]   1.0507     VOLT      6 [6           345.00]
    47     1.0382     VOLT      7 [7           345.00]   1.0360     VOLT      8 [8           345.00]
    49     1.0409     VOLT      9 [9           345.00]   1.0381     VOLT     10 [10          345.00]
    51     1.0409     VOLT     11 [11          345.00]   1.0245     VOLT     12 [12          345.00]
    53     1.0329     VOLT     13 [13          345.00]   1.0239     VOLT     14 [14          345.00]
    55    0.99026     VOLT     15 [15          345.00]  0.99051     VOLT     16 [16          345.00]
    57     1.0033     VOLT     17 [17          345.00]   1.0111     VOLT     18 [18          345.00]
    59     1.0036     VOLT     19 [19          345.00]  0.93792     VOLT     20 [20          345.00]
    61    0.99363     VOLT     21 [21          345.00]   1.0171     VOLT     22 [22          345.00]
    63     1.0153     VOLT     23 [23          345.00]  0.99724     VOLT     24 [24          345.00]
    65     1.0378     VOLT     25 [25          345.00]   1.0281     VOLT     26 [26          345.00]
    67     1.0108     VOLT     27 [27          345.00]   1.0323     VOLT     28 [28          345.00]
    69     1.0298     VOLT     29 [29          345.00]   1.0418     VOLT     30 [30          22.000]
    71     1.0160     VOLT     31 [31          22.000]  0.97807     VOLT     32 [32          22.000]
    73    0.96310     VOLT     33 [33          22.000]  0.94959     VOLT     34 [34          22.000]
    75     1.0200     VOLT     35 [35          22.000]   1.0564     VOLT     36 [36          22.000]
    77     1.0084     VOLT     37 [37          22.000]   1.0047     VOLT     38 [38          22.000]
    79     1.0238     VOLT     39 [39          22.000]   5833.6     PMECH FOR ALL BUSES
    81     5850.8     PELEC FOR ALL BUSES               -17.201     PACCL FOR ALL BUSES
    83     5805.6     PLOAD FOR ALL BUSES                45.192     PE-PL FOR ALL BUSES

  3.0000 -1.47488E-05 -1.46159E-05 -1.47195E-05 -1.45874E-05 -1.41454E-05 -1.44465E-05
     7   -1.46118E-05 -1.46433E-05 -1.48347E-05 -1.56052E-05   1.1792       2.7681
    13     1.9499       2.1362       4.0110       2.2597       2.0800       1.8218
    19     2.1036       1.0437       0.0000       0.0000       0.0000       0.0000
    25     0.0000       0.0000       0.0000       0.0000       0.0000       0.0000
    31     2.5015       5.7307       6.5015       6.3214       5.0813       6.5015
    37     5.6013       5.4013       8.3015       9.9957       1.0420       1.0430
    43     1.0272       1.0302       1.0492       1.0507       1.0382       1.0360
    49     1.0409       1.0381       1.0409       1.0245       1.0329       1.0239
    55    0.99026      0.99051       1.0033       1.0111       1.0036      0.93792
    61    0.99363       1.0171       1.0153      0.99724       1.0378       1.0281
    67     1.0108       1.0323       1.0298       1.0418       1.0160      0.97807
    73    0.96310      0.94959       1.0200       1.0564       1.0084       1.0047
    79     1.0238       5833.6       5850.8      -17.201       5805.6       45.192

 Channel output file is "ne_2.out"

    TIME X- VALUE --X X--------- IDENTIFIER ---------X X- VALUE --X X--------- IDENTIFIER ---------X
  3.0000 -1.47488E-05 SPD     30[30          22.000]1  -1.46159E-05 SPD     31[31          22.000]1
     3   -1.47195E-05 SPD     32[32          22.000]1  -1.45874E-05 SPD     33[33          22.000]1
     5   -1.41454E-05 SPD     34[34          22.000]1  -1.44465E-05 SPD     35[35          22.000]1
     7   -1.46118E-05 SPD     36[36          22.000]1  -1.46433E-05 SPD     37[37          22.000]1
     9   -1.48347E-05 SPD     38[38          22.000]1  -1.56052E-05 SPD     39[39          22.000]1
    11     1.1792     EFD     30[30          22.000]1    2.7681     EFD     31[31          22.000]1
    13     1.9499     EFD     32[32          22.000]1    2.1362     EFD     33[33          22.000]1
    15     4.0110     EFD     34[34          22.000]1    2.2597     EFD     35[35          22.000]1
    17     2.0800     EFD     36[36          22.000]1    1.8218     EFD     37[37          22.000]1
    19     2.1036     EFD     38[38          22.000]1    1.0437     EFD     39[39          22.000]1
    21     0.0000     VOEL    30[30          22.000]1    0.0000     VOEL    31[31          22.000]1
    23     0.0000     VOEL    32[32          22.000]1    0.0000     VOEL    33[33          22.000]1
    25     0.0000     VOEL    34[34          22.000]1    0.0000     VOEL    35[35          22.000]1
    27     0.0000     VOEL    36[36          22.000]1    0.0000     VOEL    37[37          22.000]1
    29     0.0000     VOEL    38[38          22.000]1    0.0000     VOEL    39[39          22.000]1
    31     2.5015     POWR    30[30          22.000]1    5.7306     POWR    31[31          22.000]1
    33     6.5014     POWR    32[32          22.000]1    6.3213     POWR    33[33          22.000]1
    35     5.0812     POWR    34[34          22.000]1    6.5014     POWR    35[35          22.000]1
    37     5.6013     POWR    36[36          22.000]1    5.4013     POWR    37[37          22.000]1
    39     8.3014     POWR    38[38          22.000]1    9.9956     POWR    39[39          22.000]1
    41     1.0420     VOLT      1 [1           345.00]   1.0430     VOLT      2 [2           345.00]
    43     1.0272     VOLT      3 [3           345.00]   1.0302     VOLT      4 [4           345.00]
    45     1.0492     VOLT      5 [5           345.00]   1.0507     VOLT      6 [6           345.00]
    47     1.0382     VOLT      7 [7           345.00]   1.0360     VOLT      8 [8           345.00]
    49     1.0409     VOLT      9 [9           345.00]   1.0381     VOLT     10 [10          345.00]
    51     1.0409     VOLT     11 [11          345.00]   1.0245     VOLT     12 [12          345.00]
    53     1.0329     VOLT     13 [13          345.00]   1.0239     VOLT     14 [14          345.00]
    55    0.99026     VOLT     15 [15          345.00]  0.99051     VOLT     16 [16          345.00]
    57     1.0033     VOLT     17 [17          345.00]   1.0111     VOLT     18 [18          345.00]
    59     1.0036     VOLT     19 [19          345.00]  0.93792     VOLT     20 [20          345.00]
    61    0.99363     VOLT     21 [21          345.00]   1.0171     VOLT     22 [22          345.00]
    63     1.0153     VOLT     23 [23          345.00]  0.99724     VOLT     24 [24          345.00]
    65     1.0378     VOLT     25 [25          345.00]   1.0281     VOLT     26 [26          345.00]
    67     1.0108     VOLT     27 [27          345.00]   1.0323     VOLT     28 [28          345.00]
    69     1.0298     VOLT     29 [29          345.00]   1.0418     VOLT     30 [30          22.000]
    71     1.0160     VOLT     31 [31          22.000]  0.97807     VOLT     32 [32          22.000]
    73    0.96310     VOLT     33 [33          22.000]  0.94959     VOLT     34 [34          22.000]
    75     1.0200     VOLT     35 [35          22.000]   1.0564     VOLT     36 [36          22.000]
    77     1.0084     VOLT     37 [37          22.000]   1.0047     VOLT     38 [38          22.000]
    79     1.0238     VOLT     39 [39          22.000]   5833.6     PMECH FOR ALL BUSES
    81     5850.8     PELEC FOR ALL BUSES               -17.201     PACCL FOR ALL BUSES
    83     5805.6     PLOAD FOR ALL BUSES                45.192     PE-PL FOR ALL BUSES

  4.0000 -1.88499E-05 -1.87606E-05 -1.89971E-05 -1.88768E-05 -1.84547E-05 -1.86521E-05
     7   -1.87452E-05 -1.88375E-05 -1.88454E-05 -1.93701E-05   1.1793       2.7681
    13     1.9502       2.1366       4.0111       2.2597       2.0801       1.8220
    19     2.1035       1.0437       0.0000       0.0000       0.0000       0.0000
    25     0.0000       0.0000       0.0000       0.0000       0.0000       0.0000
    31     2.5017       5.7310       6.5018       6.3218       5.0816       6.5018
    37     5.6017       5.4017       8.3018       9.9926       1.0420       1.0430
    43     1.0272       1.0302       1.0492       1.0507       1.0382       1.0360
    49     1.0409       1.0381       1.0409       1.0245       1.0329       1.0239
    55    0.99026      0.99051       1.0033       1.0111       1.0036      0.93792
    61    0.99363       1.0171       1.0153      0.99724       1.0378       1.0281
    67     1.0108       1.0323       1.0298       1.0418       1.0160      0.97807
    73    0.96310      0.94959       1.0200       1.0564       1.0084       1.0047
    79     1.0238       5833.6       5850.8      -17.201       5805.6       45.192

 Channel output file is "ne_2.out"

    TIME X- VALUE --X X--------- IDENTIFIER ---------X X- VALUE --X X--------- IDENTIFIER ---------X
  4.0000 -1.88499E-05 SPD     30[30          22.000]1  -1.87606E-05 SPD     31[31          22.000]1
     3   -1.89971E-05 SPD     32[32          22.000]1  -1.88768E-05 SPD     33[33          22.000]1
     5   -1.84547E-05 SPD     34[34          22.000]1  -1.86521E-05 SPD     35[35          22.000]1
     7   -1.87452E-05 SPD     36[36          22.000]1  -1.88375E-05 SPD     37[37          22.000]1
     9   -1.88454E-05 SPD     38[38          22.000]1  -1.93701E-05 SPD     39[39          22.000]1
    11     1.1793     EFD     30[30          22.000]1    2.7681     EFD     31[31          22.000]1
    13     1.9502     EFD     32[32          22.000]1    2.1366     EFD     33[33          22.000]1
    15     4.0111     EFD     34[34          22.000]1    2.2597     EFD     35[35          22.000]1
    17     2.0801     EFD     36[36          22.000]1    1.8220     EFD     37[37          22.000]1
    19     2.1035     EFD     38[38          22.000]1    1.0437     EFD     39[39          22.000]1
    21     0.0000     VOEL    30[30          22.000]1    0.0000     VOEL    31[31          22.000]1
    23     0.0000     VOEL    32[32          22.000]1    0.0000     VOEL    33[33          22.000]1
    25     0.0000     VOEL    34[34          22.000]1    0.0000     VOEL    35[35          22.000]1
    27     0.0000     VOEL    36[36          22.000]1    0.0000     VOEL    37[37          22.000]1
    29     0.0000     VOEL    38[38          22.000]1    0.0000     VOEL    39[39          22.000]1
    31     2.5017     POWR    30[30          22.000]1    5.7309     POWR    31[31          22.000]1
    33     6.5017     POWR    32[32          22.000]1    6.3217     POWR    33[33          22.000]1
    35     5.0816     POWR    34[34          22.000]1    6.5017     POWR    35[35          22.000]1
    37     5.6017     POWR    36[36          22.000]1    5.4017     POWR    37[37          22.000]1
    39     8.3018     POWR    38[38          22.000]1    9.9925     POWR    39[39          22.000]1
    41     1.0420     VOLT      1 [1           345.00]   1.0430     VOLT      2 [2           345.00]
    43     1.0272     VOLT      3 [3           345.00]   1.0302     VOLT      4 [4           345.00]
    45     1.0492     VOLT      5 [5           345.00]   1.0507     VOLT      6 [6           345.00]
    47     1.0382     VOLT      7 [7           345.00]   1.0360     VOLT      8 [8           345.00]
    49     1.0409     VOLT      9 [9           345.00]   1.0381     VOLT     10 [10          345.00]
    51     1.0409     VOLT     11 [11          345.00]   1.0245     VOLT     12 [12          345.00]
    53     1.0329     VOLT     13 [13          345.00]   1.0239     VOLT     14 [14          345.00]
    55    0.99026     VOLT     15 [15          345.00]  0.99051     VOLT     16 [16          345.00]
    57     1.0033     VOLT     17 [17          345.00]   1.0111     VOLT     18 [18          345.00]
    59     1.0036     VOLT     19 [19          345.00]  0.93792     VOLT     20 [20          345.00]
    61    0.99363     VOLT     21 [21          345.00]   1.0171     VOLT     22 [22          345.00]
    63     1.0153     VOLT     23 [23          345.00]  0.99724     VOLT     24 [24          345.00]
    65     1.0378     VOLT     25 [25          345.00]   1.0281     VOLT     26 [26          345.00]
    67     1.0108     VOLT     27 [27          345.00]   1.0323     VOLT     28 [28          345.00]
    69     1.0298     VOLT     29 [29          345.00]   1.0418     VOLT     30 [30          22.000]
    71     1.0160     VOLT     31 [31          22.000]  0.97807     VOLT     32 [32          22.000]
    73    0.96310     VOLT     33 [33          22.000]  0.94959     VOLT     34 [34          22.000]
    75     1.0200     VOLT     35 [35          22.000]   1.0564     VOLT     36 [36          22.000]
    77     1.0084     VOLT     37 [37          22.000]   1.0047     VOLT     38 [38          22.000]
    79     1.0238     VOLT     39 [39          22.000]   5833.6     PMECH FOR ALL BUSES
    81     5850.8     PELEC FOR ALL BUSES               -17.201     PACCL FOR ALL BUSES
    83     5805.6     PLOAD FOR ALL BUSES                45.192     PE-PL FOR ALL BUSES

  5.0001 -1.93092E-05 -1.92903E-05 -1.96267E-05 -1.95651E-05 -1.92136E-05 -1.93562E-05
     7   -1.93661E-05 -1.94133E-05 -1.93831E-05 -1.93750E-05   1.1793       2.7682
    13     1.9504       2.1369       4.0111       2.2598       2.0800       1.8221
    19     2.1034       1.0437       0.0000       0.0000       0.0000       0.0000
    25     0.0000       0.0000       0.0000       0.0000       0.0000       0.0000
    31     2.5019       5.7313       6.5020       6.3220       5.0819       6.5020
    37     5.6020       5.4020       8.3020       9.9909       1.0420       1.0430
    43     1.0272       1.0302       1.0492       1.0507       1.0382       1.0360
    49     1.0409       1.0381       1.0409       1.0245       1.0329       1.0239
    55    0.99026      0.99051       1.0033       1.0111       1.0036      0.93792
    61    0.99363       1.0171       1.0153      0.99724       1.0378       1.0281
    67     1.0108       1.0323       1.0298       1.0418       1.0160      0.97807
    73    0.96310      0.94959       1.0200       1.0564       1.0084       1.0047
    79     1.0238       5833.6       5850.8      -17.201       5805.6       45.192

 *** Status of machine "1" at bus 38 [38          22.000] is set to out-of-service ***

 Channel output file is "ne_2.out"

 39 diagonal and 67 off-diagonal elements

    TIME X- VALUE --X X--------- IDENTIFIER ---------X X- VALUE --X X--------- IDENTIFIER ---------X
  5.0001 -1.93092E-05 SPD     30[30          22.000]1  -1.92903E-05 SPD     31[31          22.000]1
     3   -1.96267E-05 SPD     32[32          22.000]1  -1.95651E-05 SPD     33[33          22.000]1
     5   -1.92136E-05 SPD     34[34          22.000]1  -1.93562E-05 SPD     35[35          22.000]1
     7   -1.93661E-05 SPD     36[36          22.000]1  -1.94133E-05 SPD     37[37          22.000]1
     9     0.0000     SPD     38[38          22.000]1  -1.93750E-05 SPD     39[39          22.000]1
    11     1.1793     EFD     30[30          22.000]1    2.7682     EFD     31[31          22.000]1
    13     1.9504     EFD     32[32          22.000]1    2.1369     EFD     33[33          22.000]1
    15     4.0111     EFD     34[34          22.000]1    2.2598     EFD     35[35          22.000]1
    17     2.0800     EFD     36[36          22.000]1    1.8221     EFD     37[37          22.000]1
    19     0.0000     EFD     38[38          22.000]1    1.0437     EFD     39[39          22.000]1
    21     0.0000     VOEL    30[30          22.000]1    0.0000     VOEL    31[31          22.000]1
    23     0.0000     VOEL    32[32          22.000]1    0.0000     VOEL    33[33          22.000]1
    25     0.0000     VOEL    34[34          22.000]1    0.0000     VOEL    35[35          22.000]1
    27     0.0000     VOEL    36[36          22.000]1    0.0000     VOEL    37[37          22.000]1
    29     0.0000     VOEL    38[38          22.000]1    0.0000     VOEL    39[39          22.000]1
    31     3.9883     POWR    30[30          22.000]1    6.2726     POWR    31[31          22.000]1
    33     6.9751     POWR    32[32          22.000]1    6.9306     POWR    33[33          22.000]1
    35     5.5093     POWR    34[34          22.000]1    7.1580     POWR    35[35          22.000]1
    37     6.0689     POWR    36[36          22.000]1    6.8820     POWR    37[37          22.000]1
    39     0.0000     POWR    38[38          22.000]1    11.228     POWR    39[39          22.000]1
    41     1.0420     VOLT      1 [1           345.00]   1.0430     VOLT      2 [2           345.00]
    43     1.0272     VOLT      3 [3           345.00]   1.0302     VOLT      4 [4           345.00]
    45     1.0492     VOLT      5 [5           345.00]   1.0507     VOLT      6 [6           345.00]
    47     1.0382     VOLT      7 [7           345.00]   1.0360     VOLT      8 [8           345.00]
    49     1.0409     VOLT      9 [9           345.00]   1.0381     VOLT     10 [10          345.00]
    51     1.0409     VOLT     11 [11          345.00]   1.0245     VOLT     12 [12          345.00]
    53     1.0329     VOLT     13 [13          345.00]   1.0239     VOLT     14 [14          345.00]
    55    0.99026     VOLT     15 [15          345.00]  0.99051     VOLT     16 [16          345.00]
    57     1.0033     VOLT     17 [17          345.00]   1.0111     VOLT     18 [18          345.00]
    59     1.0036     VOLT     19 [19          345.00]  0.93792     VOLT     20 [20          345.00]
    61    0.99363     VOLT     21 [21          345.00]   1.0171     VOLT     22 [22          345.00]
    63     1.0153     VOLT     23 [23          345.00]  0.99724     VOLT     24 [24          345.00]
    65     1.0378     VOLT     25 [25          345.00]   1.0281     VOLT     26 [26          345.00]
    67     1.0108     VOLT     27 [27          345.00]   1.0323     VOLT     28 [28          345.00]
    69     1.0298     VOLT     29 [29          345.00]   1.0418     VOLT     30 [30          22.000]
    71     1.0160     VOLT     31 [31          22.000]  0.97807     VOLT     32 [32          22.000]
    73    0.96310     VOLT     33 [33          22.000]  0.94959     VOLT     34 [34          22.000]
    75     1.0200     VOLT     35 [35          22.000]   1.0564     VOLT     36 [36          22.000]
    77     1.0084     VOLT     37 [37          22.000]   1.0047     VOLT     38 [38          22.000]
    79     1.0238     VOLT     39 [39          22.000]   5833.6     PMECH FOR ALL BUSES
    81     5850.8     PELEC FOR ALL BUSES               -17.201     PACCL FOR ALL BUSES
    83     5805.6     PLOAD FOR ALL BUSES                45.192     PE-PL FOR ALL BUSES

 Model MAXEX1 Bus 36 [36          22.000] Machine "1 " :
 AT TIME=   5.21 TIMER ACTIVATED EFD =   2.29

 Model MAXEX1 Bus 37 [37          22.000] Machine "1 " :
 AT TIME=   5.48 TIMER ACTIVATED EFD =   2.01

 Model MAXEX1 Bus 33 [33          22.000] Machine "1 " :
 AT TIME=   5.71 TIMER ACTIVATED EFD =   2.35

 Model MAXEX1 Bus 32 [32          22.000] Machine "1 " :
 AT TIME=   5.81 TIMER ACTIVATED EFD =   2.15

  6.0001 -4.17923E-03 -3.03528E-03 -2.82140E-03 -3.03961E-03 -2.89534E-03 -2.55334E-03
     7   -2.75381E-03 -3.74304E-03   0.0000     -4.10783E-03   1.2912       2.8483
    13     2.1724       2.4181       4.2235       2.3747       2.5674       2.2090
    19     0.0000       1.0437       0.0000       0.0000       0.0000       0.0000
    25     0.0000       0.0000       0.0000       0.0000       0.0000       0.0000
    31     3.2837       6.1246       6.7955       6.5725       5.1270       6.7935
    37     5.8922       6.0375       0.0000       13.502       1.0420       1.0430
    43     1.0272       1.0302       1.0492       1.0507       1.0382       1.0360
    49     1.0409       1.0381       1.0409       1.0245       1.0329       1.0239
    55    0.99026      0.99051       1.0033       1.0111       1.0036      0.93792
    61    0.99363       1.0171       1.0153      0.99724       1.0378       1.0281
    67     1.0108       1.0323       1.0298       1.0418       1.0160      0.97807
    73    0.96310      0.94959       1.0200       1.0564       1.0084       1.0047
    79     1.0238       5833.6       5850.8      -17.201       5805.6       45.192

 Channel output file is "ne_2.out"

    TIME X- VALUE --X X--------- IDENTIFIER ---------X X- VALUE --X X--------- IDENTIFIER ---------X
  6.0001 -4.17923E-03 SPD     30[30          22.000]1  -3.03528E-03 SPD     31[31          22.000]1
     3   -2.82140E-03 SPD     32[32          22.000]1  -3.03961E-03 SPD     33[33          22.000]1
     5   -2.89534E-03 SPD     34[34          22.000]1  -2.55334E-03 SPD     35[35          22.000]1
     7   -2.75381E-03 SPD     36[36          22.000]1  -3.74304E-03 SPD     37[37          22.000]1
     9     0.0000     SPD     38[38          22.000]1  -4.10783E-03 SPD     39[39          22.000]1
    11     1.2912     EFD     30[30          22.000]1    2.8483     EFD     31[31          22.000]1
    13     2.1724     EFD     32[32          22.000]1    2.4181     EFD     33[33          22.000]1
    15     4.2235     EFD     34[34          22.000]1    2.3747     EFD     35[35          22.000]1
    17     2.5674     EFD     36[36          22.000]1    2.2090     EFD     37[37          22.000]1
    19     0.0000     EFD     38[38          22.000]1    1.0437     EFD     39[39          22.000]1
    21     0.0000     VOEL    30[30          22.000]1    0.0000     VOEL    31[31          22.000]1
    23     0.0000     VOEL    32[32          22.000]1    0.0000     VOEL    33[33          22.000]1
    25     0.0000     VOEL    34[34          22.000]1    0.0000     VOEL    35[35          22.000]1
    27     0.0000     VOEL    36[36          22.000]1    0.0000     VOEL    37[37          22.000]1
    29     0.0000     VOEL    38[38          22.000]1    0.0000     VOEL    39[39          22.000]1
    31     3.2836     POWR    30[30          22.000]1    6.1245     POWR    31[31          22.000]1
    33     6.7954     POWR    32[32          22.000]1    6.5724     POWR    33[33          22.000]1
    35     5.1269     POWR    34[34          22.000]1    6.7934     POWR    35[35          22.000]1
    37     5.8921     POWR    36[36          22.000]1    6.0374     POWR    37[37          22.000]1
    39     0.0000     POWR    38[38          22.000]1    13.502     POWR    39[39          22.000]1
    41     1.0420     VOLT      1 [1           345.00]   1.0430     VOLT      2 [2           345.00]
    43     1.0272     VOLT      3 [3           345.00]   1.0302     VOLT      4 [4           345.00]
    45     1.0492     VOLT      5 [5           345.00]   1.0507     VOLT      6 [6           345.00]
    47     1.0382     VOLT      7 [7           345.00]   1.0360     VOLT      8 [8           345.00]
    49     1.0409     VOLT      9 [9           345.00]   1.0381     VOLT     10 [10          345.00]
    51     1.0409     VOLT     11 [11          345.00]   1.0245     VOLT     12 [12          345.00]
    53     1.0329     VOLT     13 [13          345.00]   1.0239     VOLT     14 [14          345.00]
    55    0.99026     VOLT     15 [15          345.00]  0.99051     VOLT     16 [16          345.00]
    57     1.0033     VOLT     17 [17          345.00]   1.0111     VOLT     18 [18          345.00]
    59     1.0036     VOLT     19 [19          345.00]  0.93792     VOLT     20 [20          345.00]
    61    0.99363     VOLT     21 [21          345.00]   1.0171     VOLT     22 [22          345.00]
    63     1.0153     VOLT     23 [23          345.00]  0.99724     VOLT     24 [24          345.00]
    65     1.0378     VOLT     25 [25          345.00]   1.0281     VOLT     26 [26          345.00]
    67     1.0108     VOLT     27 [27          345.00]   1.0323     VOLT     28 [28          345.00]
    69     1.0298     VOLT     29 [29          345.00]   1.0418     VOLT     30 [30          22.000]
    71     1.0160     VOLT     31 [31          22.000]  0.97807     VOLT     32 [32          22.000]
    73    0.96310     VOLT     33 [33          22.000]  0.94959     VOLT     34 [34          22.000]
    75     1.0200     VOLT     35 [35          22.000]   1.0564     VOLT     36 [36          22.000]
    77     1.0084     VOLT     37 [37          22.000]   1.0047     VOLT     38 [38          22.000]
    79     1.0238     VOLT     39 [39          22.000]   5833.6     PMECH FOR ALL BUSES
    81     5850.8     PELEC FOR ALL BUSES               -17.201     PACCL FOR ALL BUSES
    83     5805.6     PLOAD FOR ALL BUSES                45.192     PE-PL FOR ALL BUSES

  7.0001 -7.06867E-03 -6.56573E-03 -6.48166E-03 -7.02943E-03 -7.34538E-03 -6.60557E-03
     7   -6.78059E-03 -7.49657E-03   0.0000     -6.47694E-03   1.2961       2.8840
    13     2.3455       2.6480       4.3577       2.4151       2.6103       2.4519
    19     0.0000       1.0437       0.0000       0.0000       0.0000       0.0000
    25     0.0000       0.0000       0.0000       0.0000       0.0000       0.0000
    31     3.0293       6.3719       7.1353       6.9166       5.5907       7.1406
    37     6.2122       6.0333       0.0000       11.491       1.0420       1.0430
    43     1.0272       1.0302       1.0492       1.0507       1.0382       1.0360
    49     1.0409       1.0381       1.0409       1.0245       1.0329       1.0239
    55    0.99026      0.99051       1.0033       1.0111       1.0036      0.93792
    61    0.99363       1.0171       1.0153      0.99724       1.0378       1.0281
    67     1.0108       1.0323       1.0298       1.0418       1.0160      0.97807
    73    0.96310      0.94959       1.0200       1.0564       1.0084       1.0047
    79     1.0238       5833.6       5850.8      -17.201       5805.6       45.192

 Channel output file is "ne_2.out"

    TIME X- VALUE --X X--------- IDENTIFIER ---------X X- VALUE --X X--------- IDENTIFIER ---------X
  7.0001 -7.06867E-03 SPD     30[30          22.000]1  -6.56573E-03 SPD     31[31          22.000]1
     3   -6.48166E-03 SPD     32[32          22.000]1  -7.02943E-03 SPD     33[33          22.000]1
     5   -7.34538E-03 SPD     34[34          22.000]1  -6.60557E-03 SPD     35[35          22.000]1
     7   -6.78059E-03 SPD     36[36          22.000]1  -7.49657E-03 SPD     37[37          22.000]1
     9     0.0000     SPD     38[38          22.000]1  -6.47694E-03 SPD     39[39          22.000]1
    11     1.2961     EFD     30[30          22.000]1    2.8840     EFD     31[31          22.000]1
    13     2.3455     EFD     32[32          22.000]1    2.6480     EFD     33[33          22.000]1
    15     4.3577     EFD     34[34          22.000]1    2.4151     EFD     35[35          22.000]1
    17     2.6103     EFD     36[36          22.000]1    2.4519     EFD     37[37          22.000]1
    19     0.0000     EFD     38[38          22.000]1    1.0437     EFD     39[39          22.000]1
    21     0.0000     VOEL    30[30          22.000]1    0.0000     VOEL    31[31          22.000]1
    23     0.0000     VOEL    32[32          22.000]1    0.0000     VOEL    33[33          22.000]1
    25     0.0000     VOEL    34[34          22.000]1    0.0000     VOEL    35[35          22.000]1
    27     0.0000     VOEL    36[36          22.000]1    0.0000     VOEL    37[37          22.000]1
    29     0.0000     VOEL    38[38          22.000]1    0.0000     VOEL    39[39          22.000]1
    31     3.0294     POWR    30[30          22.000]1    6.3719     POWR    31[31          22.000]1
    33     7.1353     POWR    32[32          22.000]1    6.9167     POWR    33[33          22.000]1
    35     5.5907     POWR    34[34          22.000]1    7.1407     POWR    35[35          22.000]1
    37     6.2122     POWR    36[36          22.000]1    6.0334     POWR    37[37          22.000]1
    39     0.0000     POWR    38[38          22.000]1    11.491     POWR    39[39          22.000]1
    41     1.0420     VOLT      1 [1           345.00]   1.0430     VOLT      2 [2           345.00]
    43     1.0272     VOLT      3 [3           345.00]   1.0302     VOLT      4 [4           345.00]
    45     1.0492     VOLT      5 [5           345.00]   1.0507     VOLT      6 [6           345.00]
    47     1.0382     VOLT      7 [7           345.00]   1.0360     VOLT      8 [8           345.00]
    49     1.0409     VOLT      9 [9           345.00]   1.0381     VOLT     10 [10          345.00]
    51     1.0409     VOLT     11 [11          345.00]   1.0245     VOLT     12 [12          345.00]
    53     1.0329     VOLT     13 [13          345.00]   1.0239     VOLT     14 [14          345.00]
    55    0.99026     VOLT     15 [15          345.00]  0.99051     VOLT     16 [16          345.00]
    57     1.0033     VOLT     17 [17          345.00]   1.0111     VOLT     18 [18          345.00]
    59     1.0036     VOLT     19 [19          345.00]  0.93792     VOLT     20 [20          345.00]
    61    0.99363     VOLT     21 [21          345.00]   1.0171     VOLT     22 [22          345.00]
    63     1.0153     VOLT     23 [23          345.00]  0.99724     VOLT     24 [24          345.00]
    65     1.0378     VOLT     25 [25          345.00]   1.0281     VOLT     26 [26          345.00]
    67     1.0108     VOLT     27 [27          345.00]   1.0323     VOLT     28 [28          345.00]
    69     1.0298     VOLT     29 [29          345.00]   1.0418     VOLT     30 [30          22.000]
    71     1.0160     VOLT     31 [31          22.000]  0.97807     VOLT     32 [32          22.000]
    73    0.96310     VOLT     33 [33          22.000]  0.94959     VOLT     34 [34          22.000]
    75     1.0200     VOLT     35 [35          22.000]   1.0564     VOLT     36 [36          22.000]
    77     1.0084     VOLT     37 [37          22.000]   1.0047     VOLT     38 [38          22.000]
    79     1.0238     VOLT     39 [39          22.000]   5833.6     PMECH FOR ALL BUSES
    81     5850.8     PELEC FOR ALL BUSES               -17.201     PACCL FOR ALL BUSES
    83     5805.6     PLOAD FOR ALL BUSES                45.192     PE-PL FOR ALL BUSES

  8.0001 -8.18019E-03 -7.96754E-03 -7.87779E-03 -8.00167E-03 -7.72964E-03 -7.72389E-03
     7   -7.74082E-03 -8.37355E-03   0.0000     -8.45558E-03   1.2526       2.8690
    13     2.3659       2.6790       4.3204       2.3878       2.3576       2.4909
    19     0.0000       1.0437       0.0000       0.0000       0.0000       0.0000
    25     0.0000       0.0000       0.0000       0.0000       0.0000       0.0000
    31     3.1679       6.5173       7.3576       7.1300       5.8566       7.3745
    37     6.4234       6.0756       0.0000       10.306       1.0420       1.0430
    43     1.0272       1.0302       1.0492       1.0507       1.0382       1.0360
    49     1.0409       1.0381       1.0409       1.0245       1.0329       1.0239
    55    0.99026      0.99051       1.0033       1.0111       1.0036      0.93792
    61    0.99363       1.0171       1.0153      0.99724       1.0378       1.0281
    67     1.0108       1.0323       1.0298       1.0418       1.0160      0.97807
    73    0.96310      0.94959       1.0200       1.0564       1.0084       1.0047
    79     1.0238       5833.6       5850.8      -17.201       5805.6       45.192

 Channel output file is "ne_2.out"

    TIME X- VALUE --X X--------- IDENTIFIER ---------X X- VALUE --X X--------- IDENTIFIER ---------X
  8.0001 -8.18019E-03 SPD     30[30          22.000]1  -7.96754E-03 SPD     31[31          22.000]1
     3   -7.87779E-03 SPD     32[32          22.000]1  -8.00167E-03 SPD     33[33          22.000]1
     5   -7.72964E-03 SPD     34[34          22.000]1  -7.72389E-03 SPD     35[35          22.000]1
     7   -7.74082E-03 SPD     36[36          22.000]1  -8.37355E-03 SPD     37[37          22.000]1
     9     0.0000     SPD     38[38          22.000]1  -8.45558E-03 SPD     39[39          22.000]1
    11     1.2526     EFD     30[30          22.000]1    2.8690     EFD     31[31          22.000]1
    13     2.3659     EFD     32[32          22.000]1    2.6790     EFD     33[33          22.000]1
    15     4.3204     EFD     34[34          22.000]1    2.3878     EFD     35[35          22.000]1
    17     2.3576     EFD     36[36          22.000]1    2.4909     EFD     37[37          22.000]1
    19     0.0000     EFD     38[38          22.000]1    1.0437     EFD     39[39          22.000]1
    21     0.0000     VOEL    30[30          22.000]1    0.0000     VOEL    31[31          22.000]1
    23     0.0000     VOEL    32[32          22.000]1    0.0000     VOEL    33[33          22.000]1
    25     0.0000     VOEL    34[34          22.000]1    0.0000     VOEL    35[35          22.000]1
    27     0.0000     VOEL    36[36          22.000]1    0.0000     VOEL    37[37          22.000]1
    29     0.0000     VOEL    38[38          22.000]1    0.0000     VOEL    39[39          22.000]1
    31     3.1679     POWR    30[30          22.000]1    6.5173     POWR    31[31          22.000]1
    33     7.3577     POWR    32[32          22.000]1    7.1301     POWR    33[33          22.000]1
    35     5.8566     POWR    34[34          22.000]1    7.3745     POWR    35[35          22.000]1
    37     6.4235     POWR    36[36          22.000]1    6.0757     POWR    37[37          22.000]1
    39     0.0000     POWR    38[38          22.000]1    10.306     POWR    39[39          22.000]1
    41     1.0420     VOLT      1 [1           345.00]   1.0430     VOLT      2 [2           345.00]
    43     1.0272     VOLT      3 [3           345.00]   1.0302     VOLT      4 [4           345.00]
    45     1.0492     VOLT      5 [5           345.00]   1.0507     VOLT      6 [6           345.00]
    47     1.0382     VOLT      7 [7           345.00]   1.0360     VOLT      8 [8           345.00]
    49     1.0409     VOLT      9 [9           345.00]   1.0381     VOLT     10 [10          345.00]
    51     1.0409     VOLT     11 [11          345.00]   1.0245     VOLT     12 [12          345.00]
    53     1.0329     VOLT     13 [13          345.00]   1.0239     VOLT     14 [14          345.00]
    55    0.99026     VOLT     15 [15          345.00]  0.99051     VOLT     16 [16          345.00]
    57     1.0033     VOLT     17 [17          345.00]   1.0111     VOLT     18 [18          345.00]
    59     1.0036     VOLT     19 [19          345.00]  0.93792     VOLT     20 [20          345.00]
    61    0.99363     VOLT     21 [21          345.00]   1.0171     VOLT     22 [22          345.00]
    63     1.0153     VOLT     23 [23          345.00]  0.99724     VOLT     24 [24          345.00]
    65     1.0378     VOLT     25 [25          345.00]   1.0281     VOLT     26 [26          345.00]
    67     1.0108     VOLT     27 [27          345.00]   1.0323     VOLT     28 [28          345.00]
    69     1.0298     VOLT     29 [29          345.00]   1.0418     VOLT     30 [30          22.000]
    71     1.0160     VOLT     31 [31          22.000]  0.97807     VOLT     32 [32          22.000]
    73    0.96310     VOLT     33 [33          22.000]  0.94959     VOLT     34 [34          22.000]
    75     1.0200     VOLT     35 [35          22.000]   1.0564     VOLT     36 [36          22.000]
    77     1.0084     VOLT     37 [37          22.000]   1.0047     VOLT     38 [38          22.000]
    79     1.0238     VOLT     39 [39          22.000]   5833.6     PMECH FOR ALL BUSES
    81     5850.8     PELEC FOR ALL BUSES               -17.201     PACCL FOR ALL BUSES
    83     5805.6     PLOAD FOR ALL BUSES                45.192     PE-PL FOR ALL BUSES

  9.0002 -8.40973E-03 -8.45462E-03 -8.54061E-03 -8.58325E-03 -8.46364E-03 -8.47431E-03
     7   -8.49129E-03 -8.53956E-03   0.0000     -8.52995E-03   1.2473       2.8807
    13     2.3848       2.7222       4.3796       2.4173       2.4760       2.4813
    19     0.0000       1.0437       0.0000       0.0000       0.0000       0.0000
    25     0.0000       0.0000       0.0000       0.0000       0.0000       0.0000
    31     3.2225       6.5723       7.3872       7.1772       5.9205       7.3745
    37     6.4713       6.2260       0.0000       9.8713       1.0420       1.0430
    43     1.0272       1.0302       1.0492       1.0507       1.0382       1.0360
    49     1.0409       1.0381       1.0409       1.0245       1.0329       1.0239
    55    0.99026      0.99051       1.0033       1.0111       1.0036      0.93792
    61    0.99363       1.0171       1.0153      0.99724       1.0378       1.0281
    67     1.0108       1.0323       1.0298       1.0418       1.0160      0.97807
    73    0.96310      0.94959       1.0200       1.0564       1.0084       1.0047
    79     1.0238       5833.6       5850.8      -17.201       5805.6       45.192

 Channel output file is "ne_2.out"

    TIME X- VALUE --X X--------- IDENTIFIER ---------X X- VALUE --X X--------- IDENTIFIER ---------X
  9.0002 -8.40973E-03 SPD     30[30          22.000]1  -8.45462E-03 SPD     31[31          22.000]1
     3   -8.54061E-03 SPD     32[32          22.000]1  -8.58325E-03 SPD     33[33          22.000]1
     5   -8.46364E-03 SPD     34[34          22.000]1  -8.47431E-03 SPD     35[35          22.000]1
     7   -8.49129E-03 SPD     36[36          22.000]1  -8.53956E-03 SPD     37[37          22.000]1
     9     0.0000     SPD     38[38          22.000]1  -8.52995E-03 SPD     39[39          22.000]1
    11     1.2473     EFD     30[30          22.000]1    2.8807     EFD     31[31          22.000]1
    13     2.3848     EFD     32[32          22.000]1    2.7222     EFD     33[33          22.000]1
    15     4.3796     EFD     34[34          22.000]1    2.4173     EFD     35[35          22.000]1
    17     2.4760     EFD     36[36          22.000]1    2.4813     EFD     37[37          22.000]1
    19     0.0000     EFD     38[38          22.000]1    1.0437     EFD     39[39          22.000]1
    21     0.0000     VOEL    30[30          22.000]1    0.0000     VOEL    31[31          22.000]1
    23     0.0000     VOEL    32[32          22.000]1    0.0000     VOEL    33[33          22.000]1
    25     0.0000     VOEL    34[34          22.000]1    0.0000     VOEL    35[35          22.000]1
    27     0.0000     VOEL    36[36          22.000]1    0.0000     VOEL    37[37          22.000]1
    29     0.0000     VOEL    38[38          22.000]1    0.0000     VOEL    39[39          22.000]1
    31     3.2225     POWR    30[30          22.000]1    6.5723     POWR    31[31          22.000]1
    33     7.3872     POWR    32[32          22.000]1    7.1773     POWR    33[33          22.000]1
    35     5.9205     POWR    34[34          22.000]1    7.3746     POWR    35[35          22.000]1
    37     6.4713     POWR    36[36          22.000]1    6.2260     POWR    37[37          22.000]1
    39     0.0000     POWR    38[38          22.000]1    9.8714     POWR    39[39          22.000]1
    41     1.0420     VOLT      1 [1           345.00]   1.0430     VOLT      2 [2           345.00]
    43     1.0272     VOLT      3 [3           345.00]   1.0302     VOLT      4 [4           345.00]
    45     1.0492     VOLT      5 [5           345.00]   1.0507     VOLT      6 [6           345.00]
    47     1.0382     VOLT      7 [7           345.00]   1.0360     VOLT      8 [8           345.00]
    49     1.0409     VOLT      9 [9           345.00]   1.0381     VOLT     10 [10          345.00]
    51     1.0409     VOLT     11 [11          345.00]   1.0245     VOLT     12 [12          345.00]
    53     1.0329     VOLT     13 [13          345.00]   1.0239     VOLT     14 [14          345.00]
    55    0.99026     VOLT     15 [15          345.00]  0.99051     VOLT     16 [16          345.00]
    57     1.0033     VOLT     17 [17          345.00]   1.0111     VOLT     18 [18          345.00]
    59     1.0036     VOLT     19 [19          345.00]  0.93792     VOLT     20 [20          345.00]
    61    0.99363     VOLT     21 [21          345.00]   1.0171     VOLT     22 [22          345.00]
    63     1.0153     VOLT     23 [23          345.00]  0.99724     VOLT     24 [24          345.00]
    65     1.0378     VOLT     25 [25          345.00]   1.0281     VOLT     26 [26          345.00]
    67     1.0108     VOLT     27 [27          345.00]   1.0323     VOLT     28 [28          345.00]
    69     1.0298     VOLT     29 [29          345.00]   1.0418     VOLT     30 [30          22.000]
    71     1.0160     VOLT     31 [31          22.000]  0.97807     VOLT     32 [32          22.000]
    73    0.96310     VOLT     33 [33          22.000]  0.94959     VOLT     34 [34          22.000]
    75     1.0200     VOLT     35 [35          22.000]   1.0564     VOLT     36 [36          22.000]
    77     1.0084     VOLT     37 [37          22.000]   1.0047     VOLT     38 [38          22.000]
    79     1.0238     VOLT     39 [39          22.000]   5833.6     PMECH FOR ALL BUSES
    81     5850.8     PELEC FOR ALL BUSES               -17.201     PACCL FOR ALL BUSES
    83     5805.6     PLOAD FOR ALL BUSES                45.192     PE-PL FOR ALL BUSES

 Model MAXEX1 Bus 34 [34          22.000] Machine "1 " :
 AT TIME=   9.88 TIMER ACTIVATED EFD =   4.41

 10.0002 -7.73080E-03 -7.81305E-03 -7.91665E-03 -7.86025E-03 -7.67517E-03 -7.84607E-03
     7   -7.85473E-03 -7.81620E-03   0.0000     -7.89374E-03   1.2380       2.8855
    13     2.3684       2.7283       4.4255       2.4299       2.5122       2.4315
    19     0.0000       1.0437       0.0000       0.0000       0.0000       0.0000
    25     0.0000       0.0000       0.0000       0.0000       0.0000       0.0000
    31     3.3707       6.6447       7.4318       7.2696       6.0193       7.4406
    37     6.5455       6.3286       0.0000       9.0773       1.0420       1.0430
    43     1.0272       1.0302       1.0492       1.0507       1.0382       1.0360
    49     1.0409       1.0381       1.0409       1.0245       1.0329       1.0239
    55    0.99026      0.99051       1.0033       1.0111       1.0036      0.93792
    61    0.99363       1.0171       1.0153      0.99724       1.0378       1.0281
    67     1.0108       1.0323       1.0298       1.0418       1.0160      0.97807
    73    0.96310      0.94959       1.0200       1.0564       1.0084       1.0047
    79     1.0238       5833.6       5850.8      -17.201       5805.6       45.192

 Channel output file is "ne_2.out"

    TIME X- VALUE --X X--------- IDENTIFIER ---------X X- VALUE --X X--------- IDENTIFIER ---------X
 10.0002 -7.73080E-03 SPD     30[30          22.000]1  -7.81305E-03 SPD     31[31          22.000]1
     3   -7.91665E-03 SPD     32[32          22.000]1  -7.86025E-03 SPD     33[33          22.000]1
     5   -7.67517E-03 SPD     34[34          22.000]1  -7.84607E-03 SPD     35[35          22.000]1
     7   -7.85473E-03 SPD     36[36          22.000]1  -7.81620E-03 SPD     37[37          22.000]1
     9     0.0000     SPD     38[38          22.000]1  -7.89374E-03 SPD     39[39          22.000]1
    11     1.2380     EFD     30[30          22.000]1    2.8855     EFD     31[31          22.000]1
    13     2.3684     EFD     32[32          22.000]1    2.7283     EFD     33[33          22.000]1
...